   64
Test basis set                          
 N   8.931200374590E-01  8.931200374590E-01  8.931200374590E-01
 C   8.931200374590E-01  8.931200374590E-01 -2.679360112381E+00
 C   8.931200374590E-01 -2.679360112381E+00  8.931200374590E-01
 C   8.931200374590E-01 -2.679360112381E+00 -2.679360112381E+00
 C  -2.679360112381E+00  8.931200374590E-01  8.931200374590E-01
 C  -2.679360112381E+00  8.931200374590E-01 -2.679360112381E+00
 C  -2.679360112381E+00 -2.679360112381E+00  8.931200374590E-01
 N  -2.679360112381E+00 -2.679360112381E+00 -2.679360112381E+00
 C  -8.931200374590E-01 -8.931200374590E-01  8.931200374590E-01
 C  -8.931200374590E-01 -8.931200374590E-01 -2.679360112381E+00
 C  -8.931200374590E-01  2.679360112381E+00  8.931200374590E-01
 C  -8.931200374590E-01  2.679360112381E+00 -2.679360112381E+00
 C   2.679360112381E+00 -8.931200374590E-01  8.931200374590E-01
 C   2.679360112381E+00 -8.931200374590E-01 -2.679360112381E+00
 C   2.679360112381E+00  2.679360112381E+00  8.931200374590E-01
 C   2.679360112381E+00  2.679360112381E+00 -2.679360112381E+00
 C  -8.931200374590E-01  8.931200374590E-01 -8.931200374590E-01
 C  -8.931200374590E-01  8.931200374590E-01  2.679360112381E+00
 C  -8.931200374590E-01 -2.679360112381E+00 -8.931200374590E-01
 C  -8.931200374590E-01 -2.679360112381E+00  2.679360112381E+00
 C   2.679360112381E+00  8.931200374590E-01 -8.931200374590E-01
 C   2.679360112381E+00  8.931200374590E-01  2.679360112381E+00
 C   2.679360112381E+00 -2.679360112381E+00 -8.931200374590E-01
 C   2.679360112381E+00 -2.679360112381E+00  2.679360112381E+00
 C   8.931200374590E-01 -8.931200374590E-01 -8.931200374590E-01
 C   8.931200374590E-01 -8.931200374590E-01  2.679360112381E+00
 C   8.931200374590E-01  2.679360112381E+00 -8.931200374590E-01
 C   8.931200374590E-01  2.679360112381E+00  2.679360112381E+00
 C  -2.679360112381E+00 -8.931200374590E-01 -8.931200374590E-01
 C  -2.679360112381E+00 -8.931200374590E-01  2.679360112381E+00
 C  -2.679360112381E+00  2.679360112381E+00 -8.931200374590E-01
 C  -2.679360112381E+00  2.679360112381E+00  2.679360112381E+00
 C   0.000000000000E+00  0.000000000000E+00  0.000000000000E+00
 C   0.000000000000E+00  0.000000000000E+00  3.572480149840E+00
 C   0.000000000000E+00  3.572480149840E+00  0.000000000000E+00
 C   0.000000000000E+00  3.572480149840E+00  3.572480149840E+00
 C   3.572480149840E+00  0.000000000000E+00  0.000000000000E+00
 C   3.572480149840E+00  0.000000000000E+00  3.572480149840E+00
 C   3.572480149840E+00  3.572480149840E+00  0.000000000000E+00
 C   3.572480149840E+00  3.572480149840E+00  3.572480149840E+00
 C  -1.786240074920E+00 -1.786240074920E+00  0.000000000000E+00
 C  -1.786240074920E+00 -1.786240074920E+00  3.572480149840E+00
 C  -1.786240074920E+00  1.786240074920E+00  0.000000000000E+00
 C  -1.786240074920E+00  1.786240074920E+00  3.572480149840E+00
 C   1.786240074920E+00 -1.786240074920E+00  0.000000000000E+00
 C   1.786240074920E+00 -1.786240074920E+00  3.572480149840E+00
 C   1.786240074920E+00  1.786240074920E+00  0.000000000000E+00
 C   1.786240074920E+00  1.786240074920E+00  3.572480149840E+00
 C  -1.786240074920E+00  0.000000000000E+00 -1.786240074920E+00
 C  -1.786240074920E+00  0.000000000000E+00  1.786240074920E+00
 C  -1.786240074920E+00  3.572480149840E+00 -1.786240074920E+00
 C  -1.786240074920E+00  3.572480149840E+00  1.786240074920E+00
 C   1.786240074920E+00  0.000000000000E+00 -1.786240074920E+00
 C   1.786240074920E+00  0.000000000000E+00  1.786240074920E+00
 C   1.786240074920E+00  3.572480149840E+00 -1.786240074920E+00
 C   1.786240074920E+00  3.572480149840E+00  1.786240074920E+00
 C   0.000000000000E+00 -1.786240074920E+00 -1.786240074920E+00
 C   0.000000000000E+00 -1.786240074920E+00  1.786240074920E+00
 C   0.000000000000E+00  1.786240074920E+00 -1.786240074920E+00
 C   0.000000000000E+00  1.786240074920E+00  1.786240074920E+00
 C   3.572480149840E+00 -1.786240074920E+00 -1.786240074920E+00
 C   3.572480149840E+00 -1.786240074920E+00  1.786240074920E+00
 C   3.572480149840E+00  1.786240074920E+00 -1.786240074920E+00
 C   3.572480149840E+00  1.786240074920E+00  1.786240074920E+00
   64
Test basis set                           E -2.4701590793283E+03 DE 1.1E-06( 43)
 N   8.857991831203E-01  8.857991831203E-01  8.857991831203E-01
 C   8.856854834285E-01  8.856854834285E-01 -2.657035024312E+00
 C   8.856854834285E-01 -2.657035024312E+00  8.856854834285E-01
 C   8.856544482733E-01 -2.657126645025E+00 -2.657126645025E+00
 C  -2.657035024312E+00  8.856854834285E-01  8.856854834285E-01
 C  -2.657126645025E+00  8.856544482733E-01 -2.657126645025E+00
 C  -2.657126645025E+00 -2.657126645025E+00  8.856544482733E-01
 N  -2.657068171401E+00 -2.657068171401E+00 -2.657068171401E+00
 C  -8.850792400885E-01 -8.850792400885E-01  8.875470354856E-01
 C  -8.863119143794E-01 -8.863119143794E-01 -2.655230956389E+00
 C  -8.850819513167E-01  2.656468588947E+00  8.838221801045E-01
 C  -8.863225628106E-01  2.657669564339E+00 -2.658985029266E+00
 C   2.656468588947E+00 -8.850819513167E-01  8.838221801045E-01
 C   2.657669564339E+00 -8.863225628106E-01 -2.658985029266E+00
 C   2.656502396038E+00  2.656502396038E+00  8.875987966070E-01
 C   2.657700571398E+00  2.657700571398E+00 -2.655249112100E+00
 C  -8.850792400885E-01  8.875470354856E-01 -8.850792400885E-01
 C  -8.850819513167E-01  8.838221801045E-01  2.656468588947E+00
 C  -8.863119143794E-01 -2.655230956389E+00 -8.863119143794E-01
 C  -8.863225628106E-01 -2.658985029266E+00  2.657669564339E+00
 C   2.656468588947E+00  8.838221801045E-01 -8.850819513167E-01
 C   2.656502396038E+00  8.875987966070E-01  2.656502396038E+00
 C   2.657669564339E+00 -2.658985029266E+00 -8.863225628106E-01
 C   2.657700571398E+00 -2.655249112100E+00  2.657700571398E+00
 C   8.875470354856E-01 -8.850792400885E-01 -8.850792400885E-01
 C   8.838221801045E-01 -8.850819513167E-01  2.656468588947E+00
 C   8.838221801045E-01  2.656468588947E+00 -8.850819513167E-01
 C   8.875987966070E-01  2.656502396038E+00  2.656502396038E+00
 C  -2.655230956389E+00 -8.863119143794E-01 -8.863119143794E-01
 C  -2.658985029266E+00 -8.863225628106E-01  2.657669564339E+00
 C  -2.658985029266E+00  2.657669564339E+00 -8.863225628106E-01
 C  -2.655249112100E+00  2.657700571398E+00  2.657700571398E+00
 C  -1.758412279948E-02 -1.758412279948E-02 -1.758412279948E-02
 C  -1.257804731692E-03 -1.257804731692E-03  3.540024818733E+00
 C  -1.257804731692E-03  3.540024818733E+00 -1.257804731692E-03
 C  -2.771063241758E-03  3.541511072144E+00  3.541511072144E+00
 C   3.540024818733E+00 -1.257804731692E-03 -1.257804731692E-03
 C   3.541511072144E+00 -2.771063241758E-03  3.541511072144E+00
 C   3.541511072144E+00  3.541511072144E+00 -2.771063241758E-03
 C   3.525313894274E+00  3.525313894274E+00  3.525313894274E+00
 C  -1.770092290846E+00 -1.770092290846E+00 -2.837477321973E-03
 C  -1.753730395436E+00 -1.753730395436E+00  3.525177266746E+00
 C  -1.768630224742E+00  1.772644858194E+00 -1.280973404308E-03
 C  -1.770082707609E+00  1.774206853207E+00  3.541477155104E+00
 C   1.772644858194E+00 -1.768630224742E+00 -1.280973404308E-03
 C   1.774206853207E+00 -1.770082707609E+00  3.541477155104E+00
 C   1.789087613404E+00  1.789087613404E+00 -1.764807251235E-02
 C   1.772698948812E+00  1.772698948812E+00  3.540029757526E+00
 C  -1.770092290846E+00 -2.837477321973E-03 -1.770092290846E+00
 C  -1.768630224742E+00 -1.280973404308E-03  1.772644858194E+00
 C  -1.753730395436E+00  3.525177266746E+00 -1.753730395436E+00
 C  -1.770082707609E+00  3.541477155104E+00  1.774206853207E+00
 C   1.772644858194E+00 -1.280973404308E-03 -1.768630224742E+00
 C   1.789087613404E+00 -1.764807251235E-02  1.789087613404E+00
 C   1.774206853207E+00  3.541477155104E+00 -1.770082707609E+00
 C   1.772698948812E+00  3.540029757526E+00  1.772698948812E+00
 C  -2.837477321973E-03 -1.770092290846E+00 -1.770092290846E+00
 C  -1.280973404308E-03 -1.768630224742E+00  1.772644858194E+00
 C  -1.280973404308E-03  1.772644858194E+00 -1.768630224742E+00
 C  -1.764807251235E-02  1.789087613404E+00  1.789087613404E+00
 C   3.525177266746E+00 -1.753730395436E+00 -1.753730395436E+00
 C   3.541477155104E+00 -1.770082707609E+00  1.774206853207E+00
 C   3.541477155104E+00  1.774206853207E+00 -1.770082707609E+00
 C   3.540029757526E+00  1.772698948812E+00  1.772698948812E+00
   64
Test basis set                           E -2.4701762782181E+03 DE-1.1E-07( 30)
 N   8.877958484611E-01  8.877958484611E-01  8.877958484611E-01
 C   8.877610648303E-01  8.877610648303E-01 -2.663260852773E+00
 C   8.877610648303E-01 -2.663260852773E+00  8.877610648303E-01
 C   8.877566927687E-01 -2.663277935444E+00 -2.663277935444E+00
 C  -2.663260852773E+00  8.877610648303E-01  8.877610648303E-01
 C  -2.663277935444E+00  8.877566927687E-01 -2.663277935444E+00
 C  -2.663277935444E+00 -2.663277935444E+00  8.877566927687E-01
 N  -2.663253721019E+00 -2.663253721019E+00 -2.663253721019E+00
 C  -8.866092563348E-01 -8.866092563348E-01  8.899921551073E-01
 C  -8.889036863053E-01 -8.889036863053E-01 -2.661045745018E+00
 C  -8.866145295972E-01  2.662120065478E+00  8.855081178334E-01
 C  -8.889221773355E-01  2.664421795444E+00 -2.665520732041E+00
 C   2.662120065478E+00 -8.866145295972E-01  8.855081178334E-01
 C   2.664421795444E+00 -8.889221773355E-01 -2.665520732041E+00
 C   2.662124901090E+00  2.662124901090E+00  8.899997370563E-01
 C   2.664426864641E+00  2.664426864641E+00 -2.661074955002E+00
 C  -8.866092563348E-01  8.899921551073E-01 -8.866092563348E-01
 C  -8.866145295972E-01  8.855081178334E-01  2.662120065478E+00
 C  -8.889036863053E-01 -2.661045745018E+00 -8.889036863053E-01
 C  -8.889221773355E-01 -2.665520732041E+00  2.664421795444E+00
 C   2.662120065478E+00  8.855081178334E-01 -8.866145295972E-01
 C   2.662124901090E+00  8.899997370563E-01  2.662124901090E+00
 C   2.664421795444E+00 -2.665520732041E+00 -8.889221773355E-01
 C   2.664426864641E+00 -2.661074955002E+00  2.664426864641E+00
 C   8.899921551073E-01 -8.866092563348E-01 -8.866092563348E-01
 C   8.855081178334E-01 -8.866145295972E-01  2.662120065478E+00
 C   8.855081178334E-01  2.662120065478E+00 -8.866145295972E-01
 C   8.899997370563E-01  2.662124901090E+00  2.662124901090E+00
 C  -2.661045745018E+00 -8.889036863053E-01 -8.889036863053E-01
 C  -2.665520732041E+00 -8.889221773355E-01  2.664421795444E+00
 C  -2.665520732041E+00  2.664421795444E+00 -8.889221773355E-01
 C  -2.661074955002E+00  2.664426864641E+00  2.664426864641E+00
 C  -2.457394081879E-02 -2.457394081879E-02 -2.457394081879E-02
 C  -7.482507007445E-04 -7.482507007445E-04  3.547555316350E+00
 C  -7.482507007445E-04  3.547555316350E+00 -7.482507007445E-04
 C  -3.478674657575E-03  3.550289709522E+00  3.550289709522E+00
 C   3.547555316350E+00 -7.482507007445E-04 -7.482507007445E-04
 C   3.550289709522E+00 -3.478674657575E-03  3.550289709522E+00
 C   3.550289709522E+00  3.550289709522E+00 -3.478674657575E-03
 C   3.526530421249E+00  3.526530421249E+00  3.526530421249E+00
 C  -1.774764880613E+00 -1.774764880613E+00 -3.482316828892E-03
 C  -1.750922535913E+00 -1.750922535913E+00  3.526457687336E+00
 C  -1.772056555448E+00  1.776259386088E+00 -7.529626390705E-04
 C  -1.774778120228E+00  1.778990797727E+00  3.550282517376E+00
 C   1.776259386088E+00 -1.772056555448E+00 -7.529626390705E-04
 C   1.778990797727E+00 -1.774778120228E+00  3.550282517376E+00
 C   1.800128517009E+00  1.800128517009E+00 -2.461333457401E-02
 C   1.776268211284E+00  1.776268211284E+00  3.547546539556E+00
 C  -1.774764880613E+00 -3.482316828892E-03 -1.774764880613E+00
 C  -1.772056555448E+00 -7.529626390705E-04  1.776259386088E+00
 C  -1.750922535913E+00  3.526457687336E+00 -1.750922535913E+00
 C  -1.774778120228E+00  3.550282517376E+00  1.778990797727E+00
 C   1.776259386088E+00 -7.529626390705E-04 -1.772056555448E+00
 C   1.800128517009E+00 -2.461333457401E-02  1.800128517009E+00
 C   1.778990797727E+00  3.550282517376E+00 -1.774778120228E+00
 C   1.776268211284E+00  3.547546539556E+00  1.776268211284E+00
 C  -3.482316828892E-03 -1.774764880613E+00 -1.774764880613E+00
 C  -7.529626390705E-04 -1.772056555448E+00  1.776259386088E+00
 C  -7.529626390705E-04  1.776259386088E+00 -1.772056555448E+00
 C  -2.461333457401E-02  1.800128517009E+00  1.800128517009E+00
 C   3.526457687336E+00 -1.750922535913E+00 -1.750922535913E+00
 C   3.550282517376E+00 -1.774778120228E+00  1.778990797727E+00
 C   3.550282517376E+00  1.778990797727E+00 -1.774778120228E+00
 C   3.547546539556E+00  1.776268211284E+00  1.776268211284E+00
