   64
Test basis set                          
 N   8.931200374590E-01  8.931200374590E-01  8.931200374590E-01
 C   8.931200374590E-01  8.931200374590E-01 -2.679360112381E+00
 C   8.931200374590E-01 -2.679360112381E+00  8.931200374590E-01
 C   8.931200374590E-01 -2.679360112381E+00 -2.679360112381E+00
 C  -2.679360112381E+00  8.931200374590E-01  8.931200374590E-01
 C  -2.679360112381E+00  8.931200374590E-01 -2.679360112381E+00
 C  -2.679360112381E+00 -2.679360112381E+00  8.931200374590E-01
 C  -2.679360112381E+00 -2.679360112381E+00 -2.679360112381E+00
 C  -8.931200374590E-01 -8.931200374590E-01  8.931200374590E-01
 C  -8.931200374590E-01 -8.931200374590E-01 -2.679360112381E+00
 C  -8.931200374590E-01  2.679360112381E+00  8.931200374590E-01
 C  -8.931200374590E-01  2.679360112381E+00 -2.679360112381E+00
 C   2.679360112381E+00 -8.931200374590E-01  8.931200374590E-01
 C   2.679360112381E+00 -8.931200374590E-01 -2.679360112381E+00
 C   2.679360112381E+00  2.679360112381E+00  8.931200374590E-01
 C   2.679360112381E+00  2.679360112381E+00 -2.679360112381E+00
 C  -8.931200374590E-01  8.931200374590E-01 -8.931200374590E-01
 C  -8.931200374590E-01  8.931200374590E-01  2.679360112381E+00
 C  -8.931200374590E-01 -2.679360112381E+00 -8.931200374590E-01
 C  -8.931200374590E-01 -2.679360112381E+00  2.679360112381E+00
 C   2.679360112381E+00  8.931200374590E-01 -8.931200374590E-01
 C   2.679360112381E+00  8.931200374590E-01  2.679360112381E+00
 C   2.679360112381E+00 -2.679360112381E+00 -8.931200374590E-01
 C   2.679360112381E+00 -2.679360112381E+00  2.679360112381E+00
 N   8.931200374590E-01 -8.931200374590E-01 -8.931200374590E-01
 C   8.931200374590E-01 -8.931200374590E-01  2.679360112381E+00
 C   8.931200374590E-01  2.679360112381E+00 -8.931200374590E-01
 C   8.931200374590E-01  2.679360112381E+00  2.679360112381E+00
 C  -2.679360112381E+00 -8.931200374590E-01 -8.931200374590E-01
 C  -2.679360112381E+00 -8.931200374590E-01  2.679360112381E+00
 C  -2.679360112381E+00  2.679360112381E+00 -8.931200374590E-01
 C  -2.679360112381E+00  2.679360112381E+00  2.679360112381E+00
 C   0.000000000000E+00  0.000000000000E+00  0.000000000000E+00
 C   0.000000000000E+00  0.000000000000E+00  3.572480149840E+00
 C   0.000000000000E+00  3.572480149840E+00  0.000000000000E+00
 C   0.000000000000E+00  3.572480149840E+00  3.572480149840E+00
 C   3.572480149840E+00  0.000000000000E+00  0.000000000000E+00
 C   3.572480149840E+00  0.000000000000E+00  3.572480149840E+00
 C   3.572480149840E+00  3.572480149840E+00  0.000000000000E+00
 C   3.572480149840E+00  3.572480149840E+00  3.572480149840E+00
 C  -1.786240074920E+00 -1.786240074920E+00  0.000000000000E+00
 C  -1.786240074920E+00 -1.786240074920E+00  3.572480149840E+00
 C  -1.786240074920E+00  1.786240074920E+00  0.000000000000E+00
 C  -1.786240074920E+00  1.786240074920E+00  3.572480149840E+00
 C   1.786240074920E+00 -1.786240074920E+00  0.000000000000E+00
 C   1.786240074920E+00 -1.786240074920E+00  3.572480149840E+00
 C   1.786240074920E+00  1.786240074920E+00  0.000000000000E+00
 C   1.786240074920E+00  1.786240074920E+00  3.572480149840E+00
 C  -1.786240074920E+00  0.000000000000E+00 -1.786240074920E+00
 C  -1.786240074920E+00  0.000000000000E+00  1.786240074920E+00
 C  -1.786240074920E+00  3.572480149840E+00 -1.786240074920E+00
 C  -1.786240074920E+00  3.572480149840E+00  1.786240074920E+00
 C   1.786240074920E+00  0.000000000000E+00 -1.786240074920E+00
 C   1.786240074920E+00  0.000000000000E+00  1.786240074920E+00
 C   1.786240074920E+00  3.572480149840E+00 -1.786240074920E+00
 C   1.786240074920E+00  3.572480149840E+00  1.786240074920E+00
 C   0.000000000000E+00 -1.786240074920E+00 -1.786240074920E+00
 C   0.000000000000E+00 -1.786240074920E+00  1.786240074920E+00
 C   0.000000000000E+00  1.786240074920E+00 -1.786240074920E+00
 C   0.000000000000E+00  1.786240074920E+00  1.786240074920E+00
 C   3.572480149840E+00 -1.786240074920E+00 -1.786240074920E+00
 C   3.572480149840E+00 -1.786240074920E+00  1.786240074920E+00
 C   3.572480149840E+00  1.786240074920E+00 -1.786240074920E+00
 C   3.572480149840E+00  1.786240074920E+00  1.786240074920E+00
   64
Test basis set                           E -2.4701535948901E+03 DE-2.3E-07( 24)
 N   8.873327223847E-01  8.804873613348E-01  8.804873613348E-01
 C   8.845167200854E-01  8.805089462945E-01 -2.652971338097E+00
 C   8.845167200854E-01 -2.652971338097E+00  8.805089462945E-01
 C   8.873442843495E-01 -2.656753273679E+00 -2.656753273679E+00
 C  -2.659619837231E+00  8.861993616101E-01  8.861993616101E-01
 C  -2.660054018545E+00  8.823855183788E-01 -2.655229604319E+00
 C  -2.660054018545E+00 -2.655229604319E+00  8.823855183788E-01
 C  -2.659346988260E+00 -2.657937155918E+00 -2.657937155918E+00
 C  -8.871940229467E-01 -8.837855780972E-01  8.837855780972E-01
 C  -8.844429106611E-01 -8.859028906915E-01 -2.655320187176E+00
 C  -8.844429106611E-01  2.655320187176E+00  8.859028906915E-01
 C  -8.860267103078E-01  2.652849260684E+00 -2.652849260684E+00
 C   2.657858263032E+00 -8.802910580191E-01  8.802910580191E-01
 C   2.659184297473E+00 -8.882666375750E-01 -2.655580651655E+00
 C   2.659184297473E+00  2.655580651655E+00  8.882666375750E-01
 C   2.659202646865E+00  2.653416270107E+00 -2.653416270107E+00
 C  -8.871940229467E-01  8.837855780972E-01 -8.837855780972E-01
 C  -8.844429106611E-01  8.859028906915E-01  2.655320187176E+00
 C  -8.844429106611E-01 -2.655320187176E+00 -8.859028906915E-01
 C  -8.860267103078E-01 -2.652849260684E+00  2.652849260684E+00
 C   2.657858263032E+00  8.802910580191E-01 -8.802910580191E-01
 C   2.659184297473E+00  8.882666375750E-01  2.655580651655E+00
 C   2.659184297473E+00 -2.655580651655E+00 -8.882666375750E-01
 C   2.659202646865E+00 -2.653416270107E+00  2.653416270107E+00
 N   8.873327223847E-01 -8.804873613348E-01 -8.804873613348E-01
 C   8.845167200854E-01 -8.805089462945E-01  2.652971338097E+00
 C   8.845167200854E-01  2.652971338097E+00 -8.805089462945E-01
 C   8.873442843495E-01  2.656753273679E+00  2.656753273679E+00
 C  -2.659619837231E+00 -8.861993616101E-01 -8.861993616101E-01
 C  -2.660054018545E+00 -8.823855183788E-01  2.655229604319E+00
 C  -2.660054018545E+00  2.655229604319E+00 -8.823855183788E-01
 C  -2.659346988260E+00  2.657937155918E+00  2.657937155918E+00
 C  -5.006855133325E-02  0.000000000000E+00  0.000000000000E+00
 C   5.565307121887E-04  2.688596062012E-03  3.541467412631E+00
 C   5.565307121887E-04  3.541467412631E+00  2.688596062012E-03
 C  -2.955553715358E-03  3.544156008693E+00  3.544156008693E+00
 C   3.541978821519E+00  0.000000000000E+00  0.000000000000E+00
 C   3.546142848496E+00  2.688596062012E-03  3.541467412631E+00
 C   3.546142848496E+00  3.541467412631E+00  2.688596062012E-03
 C   3.547009067527E+00  3.544156008693E+00  3.544156008693E+00
 C  -1.771031493777E+00 -1.770458400512E+00 -2.816304970578E-03
 C  -1.772521888045E+00 -1.769218124934E+00  3.540613564356E+00
 C  -1.771031493777E+00  1.770458400512E+00  2.816304970578E-03
 C  -1.772521888045E+00  1.774595317058E+00  3.542321260905E+00
 C   1.794002197128E+00 -1.785067043090E+00  1.445183757973E-02
 C   1.774904729450E+00 -1.766762778567E+00  3.541022806018E+00
 C   1.794002197128E+00  1.785067043090E+00 -1.445183757973E-02
 C   1.774904729450E+00  1.772139970691E+00  3.541912019243E+00
 C  -1.771031493777E+00 -2.816304970578E-03 -1.770458400512E+00
 C  -1.771031493777E+00  2.816304970578E-03  1.770458400512E+00
 C  -1.772521888045E+00  3.540613564356E+00 -1.769218124934E+00
 C  -1.772521888045E+00  3.542321260905E+00  1.774595317058E+00
 C   1.794002197128E+00  1.445183757973E-02 -1.785067043090E+00
 C   1.794002197128E+00 -1.445183757973E-02  1.785067043090E+00
 C   1.774904729450E+00  3.541022806018E+00 -1.766762778567E+00
 C   1.774904729450E+00  3.541912019243E+00  1.772139970691E+00
 C  -1.782135061053E-02 -1.790979829333E+00 -1.790979829333E+00
 C  -1.261312355910E-03 -1.765761529259E+00  1.765761529259E+00
 C  -1.261312355910E-03  1.765761529259E+00 -1.765761529259E+00
 C  -1.782135061053E-02  1.790979829333E+00  1.790979829333E+00
 C   3.545810068760E+00 -1.772398718992E+00 -1.772398718992E+00
 C   3.545388655845E+00 -1.769903133504E+00  1.769903133504E+00
 C   3.545388655845E+00  1.769903133504E+00 -1.769903133504E+00
 C   3.545810068760E+00  1.772398718992E+00  1.772398718992E+00
   64
Test basis set                           E -2.4701736925359E+03 DE 3.8E-08( 59)
 N   8.907257332727E-01  8.730206116955E-01  8.730206116955E-01
 C   8.890655231508E-01  8.825484484484E-01 -2.653522922987E+00
 C   8.890655231508E-01 -2.653522922987E+00  8.825484484484E-01
 C   8.948817027901E-01 -2.648548028953E+00 -2.648548028953E+00
 C  -2.670566301027E+00  8.856551814108E-01  8.856551814108E-01
 C  -2.671161184272E+00  8.867948635629E-01 -2.659335768475E+00
 C  -2.671161184272E+00 -2.659335768475E+00  8.867948635629E-01
 C  -2.667367914907E+00 -2.654010708423E+00 -2.654010708423E+00
 C  -8.999302452836E-01 -8.850588583976E-01  8.850588583976E-01
 C  -8.871330585419E-01 -8.771211983166E-01 -2.651271711904E+00
 C  -8.871330585419E-01  2.651271711904E+00  8.771211983166E-01
 C  -8.884635650985E-01  2.656366945240E+00 -2.656366945240E+00
 C   2.670739366549E+00 -8.813988417804E-01  8.813988417804E-01
 C   2.672283234506E+00 -8.825522806117E-01 -2.654452473456E+00
 C   2.672283234506E+00  2.654452473456E+00  8.825522806117E-01
 C   2.669454846902E+00  2.658469167460E+00 -2.658469167460E+00
 C  -8.999302452836E-01  8.850588583976E-01 -8.850588583976E-01
 C  -8.871330585419E-01  8.771211983166E-01  2.651271711904E+00
 C  -8.871330585419E-01 -2.651271711904E+00 -8.771211983166E-01
 C  -8.884635650985E-01 -2.656366945240E+00  2.656366945240E+00
 C   2.670739366549E+00  8.813988417804E-01 -8.813988417804E-01
 C   2.672283234506E+00  8.825522806117E-01  2.654452473456E+00
 C   2.672283234506E+00 -2.654452473456E+00 -8.825522806117E-01
 C   2.669454846902E+00 -2.658469167460E+00  2.658469167460E+00
 N   8.907257332727E-01 -8.730206116955E-01 -8.730206116955E-01
 C   8.890655231508E-01 -8.825484484484E-01  2.653522922987E+00
 C   8.890655231508E-01  2.653522922987E+00 -8.825484484484E-01
 C   8.948817027901E-01  2.648548028953E+00  2.648548028953E+00
 C  -2.670566301027E+00 -8.856551814108E-01 -8.856551814108E-01
 C  -2.671161184272E+00 -8.867948635629E-01  2.659335768475E+00
 C  -2.671161184272E+00  2.659335768475E+00 -8.867948635629E-01
 C  -2.667367914907E+00  2.654010708423E+00  2.654010708423E+00
 C  -1.100852985155E-01  0.000000000000E+00  0.000000000000E+00
 C   9.520111301471E-04 -2.656200673796E-03  3.542226642901E+00
 C   9.520111301471E-04  3.542226642901E+00 -2.656200673796E-03
 C  -2.971200269126E-03  3.539570442227E+00  3.539570442227E+00
 C   3.550900887870E+00  0.000000000000E+00  0.000000000000E+00
 C   3.562678105638E+00 -2.656200673796E-03  3.542226642901E+00
 C   3.562678105638E+00  3.542226642901E+00 -2.656200673796E-03
 C   3.561522244411E+00  3.539570442227E+00  3.539570442227E+00
 C  -1.782236722675E+00 -1.774077776931E+00  2.528180055592E-03
 C  -1.779764279658E+00 -1.774616244474E+00  3.544685902259E+00
 C  -1.782236722675E+00  1.774077776931E+00 -2.528180055592E-03
 C  -1.779764279658E+00  1.769303843127E+00  3.539767383543E+00
 C   1.819274459062E+00 -1.798397540929E+00  2.727766315065E-02
 C   1.782755110061E+00 -1.772066904178E+00  3.546511492752E+00
 C   1.819274459062E+00  1.798397540929E+00 -2.727766315065E-02
 C   1.782755110061E+00  1.766754502830E+00  3.537941793051E+00
 C  -1.782236722675E+00  2.528180055592E-03 -1.774077776931E+00
 C  -1.782236722675E+00 -2.528180055592E-03  1.774077776931E+00
 C  -1.779764279658E+00  3.544685902259E+00 -1.774616244474E+00
 C  -1.779764279658E+00  3.539767383543E+00  1.769303843127E+00
 C   1.819274459062E+00  2.727766315065E-02 -1.798397540929E+00
 C   1.819274459062E+00 -2.727766315065E-02  1.798397540929E+00
 C   1.782755110061E+00  3.546511492752E+00 -1.772066904178E+00
 C   1.782755110061E+00  3.537941793051E+00  1.766754502830E+00
 C  -2.632072263318E-02 -1.790321580768E+00 -1.790321580768E+00
 C  -3.742643946410E-03 -1.766615379287E+00  1.766615379287E+00
 C  -3.742643946410E-03  1.766615379287E+00 -1.766615379287E+00
 C  -2.632072263318E-02  1.790321580768E+00  1.790321580768E+00
 C   3.560207959379E+00 -1.770171392062E+00 -1.770171392062E+00
 C   3.558756726667E+00 -1.774675469039E+00  1.774675469039E+00
 C   3.558756726667E+00  1.774675469039E+00 -1.774675469039E+00
 C   3.560207959379E+00  1.770171392062E+00  1.770171392062E+00
